src/examples/case14_twoarea/two_area_02pulim_1_35/res_branch_2.csv
branch,from_bus,to_bus,X,B,G,Bfr,Bto,p_from,p_to,q_from,q_to,p_loss,q_loss,s_from,s_to,rate_a,ang_deg,angmin,angmax
7,4,5,0.035091666666666674,-24.893929112009626,9.470452253013397,0.0,0.0,-0.08706552691024777,0.08725318904281554,0.08847490287474234,-0.08798161620792427,0.00018766213256776743,0.0004932866668180685,0.12412982886822237,0.12391078963794795,0.2,-0.22183611638500253,-60.0001403060998,60.0001403060998
4,2,4,0.14693333333333336,-5.885295774936327,2.3275490300468458,0.014166666666666668,0.014166666666666668,0.13739722512582217,-0.1364044749442783,-0.002346132350710371,-0.026476514972908944,0.0009927501815438777,-0.028822647323619315,0.1374172544089093,0.1389503027342327,0.2,1.0055397361192915,-60.0001403060998,60.0001403060998
2,1,5,0.18586666666666668,-4.960987561041088,1.4421206487968972,0.0205,0.0205,0.14610833844221,-0.14498894306701265,0.020910899148961094,-0.06248507441077896,0.0011193953751973407,-0.041574175261817864,0.147597128242935,0.15788026518792658,0.2,1.28184003712874,-60.0001403060998,60.0001403060998
3,2,3,0.164975,-5.606663082452164,1.5969516487008768,0.01825,0.01825,0.19630798278494374,-0.19464170821161977,0.011625344369408373,-0.04598494778670022,0.001666274573323967,-0.03435960341729184,0.19665190753410225,0.20000002499620564,0.2,1.6065544747795126,-60.0001403060998,60.0001403060998
5,2,5,0.14490000000000003,-5.977892318521822,2.3494890789497425,0.014416666666666668,0.014416666666666668,0.11808916627972046,-0.11731354275798846,0.019256542523988174,-0.049113160824291534,0.0007756235217320079,-0.02985661830030336,0.11964892654185258,0.1271792824346132,0.2,0.7837036197342891,-60.0001403060998,60.0001403060998
6,3,4,0.142525,-5.746114879729376,2.701611353030454,0.005333333333333334,0.005333333333333334,-0.07705828179022473,0.07742715592856522,0.0012206950441688465,-0.012082911093716392,0.000368874138340497,-0.010862216049547546,0.07706794981607165,0.07836428533257359,0.2,-0.6010147386602209,-60.0001403060998,60.0001403060998
1,1,2,0.04930833333333334,-17.566853542948998,6.904423626750412,0.022000000000000002,0.022000000000000002,0.19890385586456602,-0.19822122232992445,-0.020910909145543284,-0.026614977322697554,0.0006826335346415691,-0.04752588646824084,0.2000000249977115,0.20000002499964106,0.2,0.498136417394451,-60.0001403060998,60.0001403060998
